LTspice 24.1.1 for Windows
Circuit: C:\Users\Aadarsh\OneDrive\Documents\LTspice\Exp1.net
Start Time: Sun Feb 23 15:03:51 2025
solver = Normal
Maximum thread count: 16
tnom = 27
temp = 27
method = trap
Direct Newton iteration for .op point succeeded.
Total elapsed time: 0.304 seconds.

Files loaded:
C:\Users\Aadarsh\OneDrive\Documents\LTspice\Exp1.net
C:\Users\Aadarsh\OneDrive\Documents\LTspice\Ext_models\LM339.lib
C:\Users\Aadarsh\OneDrive\Documents\LTspice\Ext_models\MCP6001.lib

