LTspice 24.1.1 for Windows
Circuit: C:\Users\Aadarsh\OneDrive\Documents\LTspice\Exp7.net
Start Time: Tue Apr  8 18:09:57 2025
solver = Normal
Maximum thread count: 16
tnom = 27
temp = 27
method = trap
Direct Newton iteration for .op point succeeded.
Total elapsed time: 0.237 seconds.

Files loaded:
C:\Users\Aadarsh\OneDrive\Documents\LTspice\Exp7.net
C:\Users\Aadarsh\AppData\Local\LTspice\lib\cmp\standard.dio
C:\Users\Aadarsh\OneDrive\Documents\LTspice\Ext_models\MCP6001.lib

