LTspice 24.1.1 for Windows
Circuit: C:\Users\Aadarsh\OneDrive\Documents\LTspice\Exp5.net
Start Time: Tue Apr  8 16:58:28 2025
solver = Normal
Maximum thread count: 16
tnom = 27
temp = 27
method = trap
Direct Newton iteration for .op point succeeded.
Total elapsed time: 9.695 seconds.

Simulation Failed: 

Total elapsed time: 9.695 seconds.

Files loaded:
C:\Users\Aadarsh\OneDrive\Documents\LTspice\Exp5.net
C:\Users\Aadarsh\AppData\Local\LTspice\lib\cmp\standard.bjt
C:\Users\Aadarsh\OneDrive\Documents\LTspice\Ext_models\CD4069UB.cir
C:\Users\Aadarsh\OneDrive\Documents\LTspice\Ext_models\LM339.lib
C:\Users\Aadarsh\OneDrive\Documents\LTspice\Ext_models\MCP6001.lib
C:\Users\Aadarsh\OneDrive\Documents\LTspice\Ext_models\SN74AHC00.cir

