LTspice 24.1.1 for Windows
Circuit: C:\Users\Aadarsh\OneDrive\Documents\LTspice\Exp6.net
Start Time: Tue Apr  8 17:18:50 2025
solver = Normal
Maximum thread count: 16
tnom = 27
temp = 27
method = trap
Direct Newton iteration for .op point succeeded.
Total elapsed time: 0.138 seconds.

Files loaded:
C:\Users\Aadarsh\OneDrive\Documents\LTspice\Exp6.net
C:\Users\Aadarsh\OneDrive\Documents\LTspice\Ext_models\MCP6001.lib

