LTspice 24.1.1 for Windows
Circuit: C:\Users\Aadarsh\OneDrive\Documents\LTspice\Exp2.net
Start Time: Tue Apr  8 16:23:07 2025
solver = Normal
Maximum thread count: 16
tnom = 27
temp = 27
method = trap
Direct Newton iteration failed to find .op point.  (Use ".option noopiter" to skip.)
Starting Gmin stepping
Gmin = 10
Gmin = 1.07374
Gmin = 0.115292
Gmin = 0.0123794
Gmin = 0.00132923
Gmin = 0.000142725
Gmin = 1.5325e-05
vernier = 0.5
vernier = 0.25
vernier = 0.125
vernier = 0.0625
Gmin = 5.02168e-06
vernier = 0.03125
vernier = 0.015625
vernier = 0.0078125
vernier = 0.0104167
Gmin = 4.94713e-06
vernier = 0.0138889
Gmin = 4.79516e-06
vernier = 0.0185185
vernier = 0.0246913
Gmin = 4.55068e-06
vernier = 0.0329218
vernier = 0.0438957
Gmin = 4.1869e-06
vernier = 0.0585276
Gmin = 3.67352e-06
vernier = 0.0780367
vernier = 0.104049
Gmin = 2.95206e-06
vernier = 0.138732
vernier = 0.184976
Gmin = 2.0879e-06
vernier = 0.246634
Gmin = 1.21694e-06
vernier = 0.328846
vernier = 0.438461
Gmin = 4.99697e-07
vernier = 0.584614
vernier = 0.292307
vernier = 0.146154
Gmin = 3.07127e-07
vernier = 0.194871
vernier = 0.259828
Gmin = 1.9466e-07
vernier = 0.346438
Gmin = 9.381e-08
vernier = 0.461917
vernier = 0.615889
Gmin = 2.91622e-08
vernier = 0.821185
vernier = 1
Gmin = 4.95178e-09
Gmin = 5.31693e-10
Gmin = 5.70901e-11
Gmin = 6.13001e-12
Gmin = 6.58205e-13
Gmin = 0
Gmin stepping succeeded in finding the operating point.

Total elapsed time: 57.970 seconds.

Simulation Failed: 

Total elapsed time: 57.970 seconds.

Files loaded:
C:\Users\Aadarsh\OneDrive\Documents\LTspice\Exp2.net
C:\Users\Aadarsh\AppData\Local\LTspice\lib\cmp\standard.mos
C:\Users\Aadarsh\OneDrive\Documents\LTspice\Ext_models\CD4069UB.cir
C:\Users\Aadarsh\OneDrive\Documents\LTspice\Ext_models\SN74AHC00.cir
C:\Users\Aadarsh\AppData\Local\LTspice\lib\sub\LTC7.lib
C:\Users\Aadarsh\AppData\Local\LTspice\lib\sub\LTC1693-1.sub
C:\Users\Aadarsh\AppData\Local\LTspice\lib\sub\UniversalOpAmp2.lib

